<?xml version="1.0" encoding="UTF-8"?>

<!-- generated on Sun 13 Mar 2022 03:57:36 PM UTC by Eclipse SUMO netedit Version 1.8.0
<configuration xmlns:xsi="http://www.w3.org/2001/XMLSchema-instance" xsi:noNamespaceSchemaLocation="http://sumo.dlr.de/xsd/netconvertConfiguration.xsd">

    <input>
        <sumo-net-file value="/home/veins/new.net.xml"/>
    </input>

    <output>
        <output-file value="/home/veins/new.net.xml"/>
    </output>

    <processing>
        <geometry.min-radius.fix.railways value="false"/>
        <geometry.max-grade.fix value="false"/>
        <offset.disable-normalization value="true"/>
        <lefthand value="false"/>
    </processing>

    <junctions>
        <no-turnarounds value="true"/>
        <junctions.corner-detail value="5"/>
        <junctions.limit-turn-speed value="5.5"/>
        <rectangular-lane-cut value="false"/>
    </junctions>

    <pedestrian>
        <walkingareas value="false"/>
    </pedestrian>

    <report>
        <aggregate-warnings value="5"/>
    </report>

</configuration>
-->

<net version="1.6" junctionCornerDetail="5" limitTurnSpeed="5.50" xmlns:xsi="http://www.w3.org/2001/XMLSchema-instance" xsi:noNamespaceSchemaLocation="http://sumo.dlr.de/xsd/net_file.xsd">

    <location netOffset="-793726.84,-320568.10" convBoundary="0.00,0.00,1732.31,4557.28" origBoundary="101.642126,2.897149,101.657711,2.945047" projParameter="+proj=utm +zone=47 +ellps=WGS84 +datum=WGS84 +units=m +no_defs"/>

    <type id="highway.bridleway" priority="1" numLanes="1" speed="2.78" allow="pedestrian" oneway="1" width="2.00"/>
    <type id="highway.bus_guideway" priority="1" numLanes="1" speed="27.78" allow="bus" oneway="1"/>
    <type id="highway.cycleway" priority="1" numLanes="1" speed="8.33" allow="bicycle" oneway="1" width="1.00"/>
    <type id="highway.footway" priority="1" numLanes="1" speed="2.78" allow="pedestrian" oneway="1" width="2.00"/>
    <type id="highway.ford" priority="1" numLanes="1" speed="2.78" allow="army" oneway="1"/>
    <type id="highway.living_street" priority="2" numLanes="1" speed="2.78" disallow="tram rail_urban rail rail_electric rail_fast ship" oneway="1"/>
    <type id="highway.motorway" priority="14" numLanes="2" speed="39.44" allow="private emergency authority army vip passenger hov taxi bus coach delivery truck trailer motorcycle evehicle custom1 custom2" oneway="1"/>
    <type id="highway.motorway_link" priority="9" numLanes="1" speed="22.22" allow="private emergency authority army vip passenger hov taxi bus coach delivery truck trailer motorcycle evehicle custom1 custom2" oneway="1"/>
    <type id="highway.path" priority="1" numLanes="1" speed="2.78" allow="pedestrian bicycle" oneway="1" width="2.00"/>
    <type id="highway.pedestrian" priority="1" numLanes="1" speed="2.78" allow="pedestrian" oneway="1" width="2.00"/>
    <type id="highway.primary" priority="12" numLanes="2" speed="27.78" disallow="tram rail_urban rail rail_electric rail_fast ship" oneway="1"/>
    <type id="highway.primary_link" priority="7" numLanes="1" speed="22.22" disallow="tram rail_urban rail rail_electric rail_fast ship" oneway="1"/>
    <type id="highway.raceway" priority="15" numLanes="2" speed="83.33" allow="vip" oneway="1"/>
    <type id="highway.residential" priority="3" numLanes="1" speed="13.89" disallow="tram rail_urban rail rail_electric rail_fast ship" oneway="1"/>
    <type id="highway.secondary" priority="11" numLanes="1" speed="27.78" disallow="tram rail_urban rail rail_electric rail_fast ship" oneway="1"/>
    <type id="highway.secondary_link" priority="6" numLanes="1" speed="22.22" disallow="tram rail_urban rail rail_electric rail_fast ship" oneway="1"/>
    <type id="highway.service" priority="1" numLanes="1" speed="5.56" allow="pedestrian delivery bicycle" oneway="1"/>
    <type id="highway.stairs" priority="1" numLanes="1" speed="1.39" allow="pedestrian" oneway="1" width="2.00"/>
    <type id="highway.step" priority="1" numLanes="1" speed="1.39" allow="pedestrian" oneway="1" width="2.00"/>
    <type id="highway.steps" priority="1" numLanes="1" speed="1.39" allow="pedestrian" oneway="1" width="2.00"/>
    <type id="highway.tertiary" priority="10" numLanes="1" speed="22.22" disallow="tram rail_urban rail rail_electric rail_fast ship" oneway="1"/>
    <type id="highway.tertiary_link" priority="5" numLanes="1" speed="22.22" disallow="tram rail_urban rail rail_electric rail_fast ship" oneway="1"/>
    <type id="highway.track" priority="1" numLanes="1" speed="5.56" allow="pedestrian motorcycle moped bicycle" oneway="1"/>
    <type id="highway.trunk" priority="13" numLanes="2" speed="27.78" disallow="pedestrian bicycle tram rail_urban rail rail_electric rail_fast ship" oneway="1"/>
    <type id="highway.trunk_link" priority="8" numLanes="1" speed="22.22" disallow="pedestrian bicycle tram rail_urban rail rail_electric rail_fast ship" oneway="1"/>
    <type id="highway.unclassified" priority="4" numLanes="1" speed="13.89" disallow="tram rail_urban rail rail_electric rail_fast ship" oneway="1"/>
    <type id="highway.unsurfaced" priority="1" numLanes="1" speed="8.33" disallow="tram rail_urban rail rail_electric rail_fast ship" oneway="1"/>
    <type id="railway.highspeed" priority="21" numLanes="1" speed="69.44" allow="rail_fast" oneway="1"/>
    <type id="railway.light_rail" priority="19" numLanes="1" speed="27.78" allow="rail_urban" oneway="1"/>
    <type id="railway.preserved" priority="16" numLanes="1" speed="27.78" allow="rail" oneway="1"/>
    <type id="railway.rail" priority="20" numLanes="1" speed="44.44" allow="rail" oneway="1"/>
    <type id="railway.subway" priority="18" numLanes="1" speed="27.78" allow="rail_urban" oneway="1"/>
    <type id="railway.tram" priority="17" numLanes="1" speed="13.89" allow="tram" oneway="1"/>

    <edge id=":123650711#0-AddedOffRampNode_0" function="internal">
        <lane id=":123650711#0-AddedOffRampNode_0_0" index="0" disallow="tram rail_urban rail rail_electric rail_fast ship" speed="27.78" length="8.40" shape="1271.10,3688.87 1268.65,3689.38 1267.11,3690.48 1265.58,3691.59 1263.12,3692.10"/>
        <lane id=":123650711#0-AddedOffRampNode_0_1" index="1" disallow="tram rail_urban rail rail_electric rail_fast ship" speed="27.78" length="8.40" shape="1271.10,3688.87 1263.10,3688.90"/>
    </edge>
    <edge id=":1387553125_0" function="internal">
        <lane id=":1387553125_0_0" index="0" disallow="tram rail_urban rail rail_electric rail_fast ship" speed="27.78" length="27.61" shape="1071.53,2710.19 1098.34,2716.81"/>
        <lane id=":1387553125_0_1" index="1" disallow="tram rail_urban rail rail_electric rail_fast ship" speed="27.78" length="27.61" shape="1070.77,2713.30 1097.57,2719.92"/>
    </edge>
    <edge id=":1387553125_2" function="internal">
        <lane id=":1387553125_2_0" index="0" disallow="tram rail_urban rail rail_electric rail_fast ship" speed="25.00" length="27.63" shape="1070.77,2713.30 1078.22,2715.63 1085.48,2718.60 1091.75,2721.57 1096.23,2723.87"/>
    </edge>
    <edge id=":1387553145_0" function="internal">
        <lane id=":1387553145_0_0" index="0" disallow="tram rail_urban rail rail_electric rail_fast ship" speed="27.78" length="9.98" shape="1200.92,2737.99 1210.82,2739.80"/>
        <lane id=":1387553145_0_1" index="1" disallow="tram rail_urban rail rail_electric rail_fast ship" speed="27.78" length="9.98" shape="1200.34,2741.14 1210.08,2742.91"/>
    </edge>
    <edge id=":1387553145_2" function="internal">
        <lane id=":1387553145_2_0" index="0" disallow="tram rail_urban rail rail_electric rail_fast ship" speed="25.00" length="9.44" shape="1200.06,2744.61 1202.85,2744.65 1204.75,2744.89 1206.62,2745.34 1209.34,2746.02"/>
    </edge>
    <edge id=":1387765031_0" function="internal">
        <lane id=":1387765031_0_0" index="0" allow="pedestrian delivery bicycle" speed="6.11" length="7.74" shape="882.77,2787.62 881.43,2787.20 880.48,2786.01 879.91,2784.03 879.74,2781.28"/>
    </edge>
    <edge id=":1387765031_1" function="internal">
        <lane id=":1387765031_1_0" index="0" allow="pedestrian delivery bicycle" speed="3.65" length="4.67" shape="882.77,2787.62 881.59,2786.80 881.20,2785.99 881.62,2785.20 882.84,2784.42"/>
    </edge>
    <edge id=":1387765031_2" function="internal">
        <lane id=":1387765031_2_0" index="0" disallow="tram rail_urban rail rail_electric rail_fast ship" speed="27.78" length="9.37" shape="879.60,2790.66 879.74,2781.28"/>
    </edge>
    <edge id=":1387765031_3" function="internal">
        <lane id=":1387765031_3_0" index="0" allow="pedestrian delivery bicycle" speed="6.08" length="7.75" shape="879.60,2790.66 879.86,2787.91 880.48,2785.95 881.48,2784.79 882.84,2784.42"/>
    </edge>
    <edge id=":297396114#11-AddedOnRampNode_0" function="internal">
        <lane id=":297396114#11-AddedOnRampNode_0_0" index="0" disallow="tram rail_urban rail rail_electric rail_fast ship" speed="27.78" length="0.30" shape="611.22,2688.19 610.93,2688.28"/>
        <lane id=":297396114#11-AddedOnRampNode_0_1" index="1" disallow="tram rail_urban rail rail_electric rail_fast ship" speed="27.78" length="0.30" shape="610.23,2685.14 609.95,2685.24"/>
        <lane id=":297396114#11-AddedOnRampNode_0_2" index="2" disallow="tram rail_urban rail rail_electric rail_fast ship" speed="27.78" length="0.30" shape="609.25,2682.10 608.96,2682.19"/>
    </edge>
    <edge id=":2997151424_0" function="internal">
        <lane id=":2997151424_0_0" index="0" allow="pedestrian delivery bicycle" speed="5.56" length="0.58" shape="1391.04,2657.19 1390.90,2657.10 1390.79,2657.04 1390.68,2657.00 1390.52,2656.96"/>
    </edge>
    <edge id=":2997151446_0" function="internal">
        <lane id=":2997151446_0_0" index="0" allow="pedestrian delivery bicycle" speed="5.56" length="0.36" shape="1395.32,2734.67 1395.43,2734.68 1395.50,2734.67 1395.57,2734.67 1395.68,2734.65"/>
    </edge>
    <edge id=":2997151475_0" function="internal">
        <lane id=":2997151475_0_0" index="0" allow="pedestrian delivery bicycle" speed="4.94" length="5.13" shape="1266.40,2658.38 1266.19,2659.79 1266.49,2660.88 1267.32,2661.67 1268.66,2662.14"/>
    </edge>
    <edge id=":2997151475_1" function="internal">
        <lane id=":2997151475_1_0" index="0" allow="pedestrian delivery bicycle" speed="5.56" length="6.22" shape="1266.40,2658.38 1264.60,2664.33"/>
    </edge>
    <edge id=":2997151483_0" function="internal">
        <lane id=":2997151483_0_0" index="0" allow="pedestrian delivery bicycle" speed="5.56" length="5.16" shape="1313.21,2634.08 1312.30,2634.90 1311.21,2635.34 1309.94,2635.41 1308.49,2635.11"/>
    </edge>
    <edge id=":2997151483_1" function="internal">
        <lane id=":2997151483_1_0" index="0" allow="pedestrian delivery bicycle" speed="4.95" length="5.10" shape="1310.34,2639.09 1310.69,2637.71 1310.50,2636.59 1309.76,2635.73 1308.49,2635.11"/>
    </edge>
    <edge id=":2997151491_0" function="internal">
        <lane id=":2997151491_0_0" index="0" allow="pedestrian delivery bicycle" speed="5.56" length="6.20" shape="1299.57,2632.29 1293.66,2630.42"/>
    </edge>
    <edge id=":2997151491_1" function="internal">
        <lane id=":2997151491_1_0" index="0" allow="pedestrian delivery bicycle" speed="5.09" length="5.03" shape="1299.57,2632.29 1298.35,2631.70 1297.60,2630.85 1297.33,2629.74 1297.53,2628.36"/>
    </edge>
    <edge id=":3027478243_0" function="internal">
        <lane id=":3027478243_0_0" index="0" allow="pedestrian delivery bicycle" speed="5.03" length="5.01" shape="1279.12,2904.23 1279.30,2905.60 1279.88,2906.57 1280.84,2907.15 1282.21,2907.34"/>
    </edge>
    <edge id=":3027478243_1" function="internal">
        <lane id=":3027478243_1_0" index="0" allow="pedestrian delivery bicycle" speed="5.56" length="6.20" shape="1279.12,2904.23 1279.06,2910.43"/>
    </edge>
    <edge id=":3027478249_0" function="internal">
        <lane id=":3027478249_0_0" index="0" allow="pedestrian delivery bicycle" speed="5.56" length="7.63" shape="1283.56,2827.07 1281.91,2828.65 1280.71,2829.81 1279.97,2831.15 1279.71,2833.28"/>
    </edge>
    <edge id=":3027478249_1" function="internal">
        <lane id=":3027478249_1_0" index="0" allow="pedestrian delivery bicycle" speed="5.56" length="7.72" shape="1279.78,2825.56 1279.71,2833.28"/>
    </edge>
    <edge id=":3027478314_0" function="internal">
        <lane id=":3027478314_0_0" index="0" allow="pedestrian delivery bicycle" speed="5.56" length="5.80" shape="1410.93,2909.74 1410.55,2908.06 1410.39,2906.89 1410.35,2905.71 1410.32,2903.99"/>
    </edge>
    <edge id=":3027478314_1" function="internal">
        <lane id=":3027478314_1_0" index="0" allow="pedestrian delivery bicycle" speed="5.02" length="5.02" shape="1407.20,2907.07 1408.59,2906.87 1409.58,2906.29 1410.15,2905.33 1410.32,2903.99"/>
    </edge>
    <edge id=":3027478322_0" function="internal">
        <lane id=":3027478322_0_0" index="0" allow="pedestrian delivery bicycle" speed="5.56" length="6.65" shape="1373.90,2819.01 1372.70,2818.91 1371.29,2819.24 1369.66,2819.99 1367.81,2821.17"/>
    </edge>
    <edge id=":3027478322_1" function="internal">
        <lane id=":3027478322_1_0" index="0" allow="pedestrian delivery bicycle" speed="5.56" length="7.08" shape="1373.90,2819.01 1367.11,2817.04"/>
    </edge>
    <edge id=":3027513657_0" function="internal">
        <lane id=":3027513657_0_0" index="0" allow="pedestrian delivery bicycle" speed="5.56" length="0.10" shape="1290.40,2936.67 1290.40,2936.67"/>
    </edge>
    <edge id=":3027513685_0" function="internal">
        <lane id=":3027513685_0_0" index="0" allow="pedestrian delivery bicycle" speed="5.56" length="0.41" shape="1285.95,2961.21 1285.83,2961.19 1285.75,2961.17 1285.67,2961.14 1285.56,2961.09"/>
    </edge>
    <edge id=":3027597776_0" function="internal">
        <lane id=":3027597776_0_0" index="0" allow="pedestrian delivery bicycle" speed="5.56" length="9.40" shape="1343.48,3185.23 1343.46,3194.63"/>
    </edge>
    <edge id=":3027597776_1" function="internal">
        <lane id=":3027597776_1_0" index="0" allow="pedestrian delivery bicycle" speed="5.56" length="10.23" shape="1343.48,3185.23 1343.08,3188.01 1341.88,3189.98 1339.89,3191.14 1337.10,3191.49"/>
    </edge>
    <edge id=":3027597776_2" function="internal">
        <lane id=":3027597776_2_0" index="0" allow="pedestrian delivery bicycle" speed="3.65" length="4.67" shape="1343.48,3185.23 1342.68,3186.43 1341.88,3186.83 1341.08,3186.42 1340.28,3185.22"/>
    </edge>
    <edge id=":3027597776_3" function="internal">
        <lane id=":3027597776_3_0" index="0" allow="pedestrian delivery bicycle" speed="5.03" length="5.02" shape="1337.15,3188.29 1338.52,3188.12 1339.50,3187.55 1340.08,3186.58 1340.28,3185.22"/>
    </edge>
    <edge id=":3027597776_4" function="internal">
        <lane id=":3027597776_4_0" index="0" allow="pedestrian delivery bicycle" speed="5.56" length="10.16" shape="1337.15,3188.29 1339.92,3188.73 1341.89,3189.93 1343.07,3191.90 1343.46,3194.63"/>
    </edge>
    <edge id=":3027597776_5" function="internal">
        <lane id=":3027597776_5_0" index="0" allow="pedestrian delivery bicycle" speed="3.65" length="4.67" shape="1337.15,3188.29 1338.34,3189.11 1338.73,3189.92 1338.31,3190.71 1337.10,3191.49"/>
    </edge>
    <edge id=":3027597776_6" function="internal">
        <lane id=":3027597776_6_0" index="0" allow="pedestrian delivery bicycle" speed="5.08" length="5.05" shape="1340.26,3194.62 1340.06,3193.27 1339.47,3192.30 1338.48,3191.71 1337.10,3191.49"/>
    </edge>
    <edge id=":3027597776_7" function="internal">
        <lane id=":3027597776_7_0" index="0" allow="pedestrian delivery bicycle" speed="5.56" length="9.40" shape="1340.26,3194.62 1340.28,3185.22"/>
    </edge>
    <edge id=":3027597776_8" function="internal">
        <lane id=":3027597776_8_0" index="0" allow="pedestrian delivery bicycle" speed="3.65" length="4.67" shape="1340.26,3194.62 1341.06,3193.43 1341.86,3193.03 1342.66,3193.43 1343.46,3194.63"/>
    </edge>
    <edge id=":3027597782_0" function="internal">
        <lane id=":3027597782_0_0" index="0" allow="pedestrian delivery bicycle" speed="3.65" length="4.67" shape="1269.13,3123.88 1270.37,3124.62 1270.81,3125.40 1270.45,3126.22 1269.29,3127.08"/>
    </edge>
    <edge id=":3027597792_0" function="internal">
        <lane id=":3027597792_0_0" index="0" allow="pedestrian delivery bicycle" speed="5.56" length="9.40" shape="1346.49,3210.96 1337.09,3210.90"/>
    </edge>
    <edge id=":3027597792_1" function="internal">
        <lane id=":3027597792_1_0" index="0" allow="pedestrian delivery bicycle" speed="5.56" length="10.16" shape="1346.49,3210.96 1343.74,3210.55 1341.78,3209.35 1340.61,3207.37 1340.22,3204.61"/>
    </edge>
    <edge id=":3027597792_2" function="internal">
        <lane id=":3027597792_2_0" index="0" allow="pedestrian delivery bicycle" speed="3.65" length="4.67" shape="1346.49,3210.96 1345.29,3210.15 1344.90,3209.35 1345.30,3208.55 1346.51,3207.76"/>
    </edge>
    <edge id=":3027597792_3" function="internal">
        <lane id=":3027597792_3_0" index="0" allow="pedestrian delivery bicycle" speed="5.05" length="5.01" shape="1343.42,3204.62 1343.61,3205.99 1344.19,3206.97 1345.16,3207.56 1346.51,3207.76"/>
    </edge>
    <edge id=":3027597792_4" function="internal">
        <lane id=":3027597792_4_0" index="0" allow="pedestrian delivery bicycle" speed="5.56" length="10.18" shape="1343.42,3204.62 1343.02,3207.38 1341.83,3209.35 1339.85,3210.52 1337.09,3210.90"/>
    </edge>
    <edge id=":3027597792_5" function="internal">
        <lane id=":3027597792_5_0" index="0" allow="pedestrian delivery bicycle" speed="3.65" length="4.67" shape="1343.42,3204.62 1342.62,3205.82 1341.82,3206.22 1341.02,3205.82 1340.22,3204.61"/>
    </edge>
    <edge id=":3027597792_6" function="internal">
        <lane id=":3027597792_6_0" index="0" allow="pedestrian delivery bicycle" speed="5.04" length="5.00" shape="1337.11,3207.70 1338.47,3207.51 1339.44,3206.94 1340.03,3205.97 1340.22,3204.61"/>
    </edge>
    <edge id=":3027597792_7" function="internal">
        <lane id=":3027597792_7_0" index="0" allow="pedestrian delivery bicycle" speed="5.56" length="9.40" shape="1337.11,3207.70 1346.51,3207.76"/>
    </edge>
    <edge id=":3027597792_8" function="internal">
        <lane id=":3027597792_8_0" index="0" allow="pedestrian delivery bicycle" speed="3.65" length="4.67" shape="1337.11,3207.70 1338.30,3208.51 1338.70,3209.31 1338.29,3210.11 1337.09,3210.90"/>
    </edge>
    <edge id=":3027597793_0" function="internal">
        <lane id=":3027597793_0_0" index="0" allow="pedestrian delivery bicycle" speed="5.04" length="5.00" shape="1320.87,3191.23 1319.51,3191.40 1318.53,3191.97 1317.94,3192.93 1317.72,3194.28"/>
    </edge>
    <edge id=":3027597793_1" function="internal">
        <lane id=":3027597793_1_0" index="0" allow="pedestrian delivery bicycle" speed="5.56" length="9.40" shape="1320.87,3191.23 1311.47,3191.08"/>
    </edge>
    <edge id=":3027597793_2" function="internal">
        <lane id=":3027597793_2_0" index="0" allow="pedestrian delivery bicycle" speed="5.56" length="8.91" shape="1320.87,3191.23 1318.82,3190.80 1317.37,3189.59 1316.53,3187.61 1316.29,3184.85"/>
    </edge>
    <edge id=":3027597793_3" function="internal">
        <lane id=":3027597793_3_0" index="0" allow="pedestrian delivery bicycle" speed="3.65" length="4.67" shape="1320.87,3191.23 1319.68,3190.41 1319.30,3189.60 1319.71,3188.81 1320.92,3188.03"/>
    </edge>
    <edge id=":3027597793_4" function="internal">
        <lane id=":3027597793_4_0" index="0" allow="pedestrian delivery bicycle" speed="5.56" length="6.36" shape="1311.52,3187.88 1313.59,3187.71 1315.07,3187.16 1315.97,3186.20 1316.29,3184.85"/>
    </edge>
    <edge id=":3027597793_5" function="internal">
        <lane id=":3027597793_5_0" index="0" allow="pedestrian delivery bicycle" speed="5.56" length="9.40" shape="1311.52,3187.88 1320.92,3188.03"/>
    </edge>
    <edge id=":3027597793_6" function="internal">
        <lane id=":3027597793_6_0" index="0" allow="pedestrian delivery bicycle" speed="5.56" length="10.17" shape="1311.52,3187.88 1314.27,3188.31 1316.22,3189.53 1317.37,3191.52 1317.72,3194.28"/>
    </edge>
    <edge id=":3027597793_7" function="internal">
        <lane id=":3027597793_7_0" index="0" allow="pedestrian delivery bicycle" speed="3.65" length="4.67" shape="1311.52,3187.88 1312.71,3188.69 1313.10,3189.50 1312.68,3190.29 1311.47,3191.08"/>
    </edge>
    <edge id=":3027597793_8" function="internal">
        <lane id=":3027597793_8_0" index="0" allow="pedestrian delivery bicycle" speed="5.04" length="5.00" shape="1314.52,3194.23 1314.35,3192.87 1313.78,3191.89 1312.82,3191.29 1311.47,3191.08"/>
    </edge>
    <edge id=":3027597793_9" function="internal">
        <lane id=":3027597793_9_0" index="0" allow="pedestrian delivery bicycle" speed="5.56" length="9.59" shape="1314.52,3194.23 1314.82,3191.42 1315.40,3189.54 1315.99,3187.65 1316.29,3184.85"/>
    </edge>
    <edge id=":3027597793_10" function="internal">
        <lane id=":3027597793_10_0" index="0" allow="pedestrian delivery bicycle" speed="5.56" length="10.16" shape="1314.52,3194.23 1314.96,3191.48 1316.17,3189.53 1318.16,3188.38 1320.92,3188.03"/>
    </edge>
    <edge id=":3027597793_11" function="internal">
        <lane id=":3027597793_11_0" index="0" allow="pedestrian delivery bicycle" speed="3.65" length="4.67" shape="1314.52,3194.23 1315.34,3193.04 1316.15,3192.65 1316.94,3193.07 1317.72,3194.28"/>
    </edge>
    <edge id=":3027597798_0" function="internal">
        <lane id=":3027597798_0_0" index="0" allow="pedestrian delivery bicycle" speed="3.65" length="4.67" shape="1368.89,3222.14 1370.25,3222.62 1370.83,3223.30 1370.64,3224.17 1369.67,3225.24"/>
    </edge>
    <edge id=":3027597799_0" function="internal">
        <lane id=":3027597799_0_0" index="0" allow="pedestrian delivery bicycle" speed="5.10" length="5.07" shape="1258.56,3210.36 1257.16,3210.54 1256.15,3211.11 1255.53,3212.07 1255.29,3213.41"/>
    </edge>
    <edge id=":3027597799_1" function="internal">
        <lane id=":3027597799_1_0" index="0" allow="pedestrian delivery bicycle" speed="5.56" length="10.25" shape="1258.56,3210.36 1255.77,3209.94 1253.81,3208.73 1252.66,3206.73 1252.33,3203.93"/>
    </edge>
    <edge id=":3027597799_2" function="internal">
        <lane id=":3027597799_2_0" index="0" allow="pedestrian delivery bicycle" speed="3.65" length="4.67" shape="1258.56,3210.36 1257.37,3209.55 1256.97,3208.75 1257.38,3207.95 1258.58,3207.16"/>
    </edge>
    <edge id=":3027597799_3" function="internal">
        <lane id=":3027597799_3_0" index="0" allow="pedestrian delivery bicycle" speed="5.02" length="5.02" shape="1255.53,3204.01 1255.69,3205.38 1256.25,3206.36 1257.22,3206.96 1258.58,3207.16"/>
    </edge>
    <edge id=":3027597799_4" function="internal">
        <lane id=":3027597799_4_0" index="0" allow="pedestrian delivery bicycle" speed="5.56" length="9.40" shape="1255.53,3204.01 1255.29,3213.41"/>
    </edge>
    <edge id=":3027597799_5" function="internal">
        <lane id=":3027597799_5_0" index="0" allow="pedestrian delivery bicycle" speed="3.65" length="4.67" shape="1255.53,3204.01 1254.70,3205.19 1253.89,3205.57 1253.10,3205.15 1252.33,3203.93"/>
    </edge>
    <edge id=":3027597799_6" function="internal">
        <lane id=":3027597799_6_0" index="0" allow="pedestrian delivery bicycle" speed="5.56" length="9.41" shape="1252.09,3213.33 1252.33,3203.93"/>
    </edge>
    <edge id=":3027597799_7" function="internal">
        <lane id=":3027597799_7_0" index="0" allow="pedestrian delivery bicycle" speed="5.56" length="10.17" shape="1252.09,3213.33 1252.56,3210.62 1253.79,3208.68 1255.80,3207.53 1258.58,3207.16"/>
    </edge>
    <edge id=":3027597799_8" function="internal">
        <lane id=":3027597799_8_0" index="0" allow="pedestrian delivery bicycle" speed="3.65" length="4.67" shape="1252.09,3213.33 1252.92,3212.15 1253.73,3211.77 1254.52,3212.19 1255.29,3213.41"/>
    </edge>
    <edge id=":3027597813_0" function="internal">
        <lane id=":3027597813_0_0" index="0" allow="pedestrian delivery bicycle" speed="5.56" length="9.40" shape="1320.19,3231.17 1310.79,3231.04"/>
    </edge>
    <edge id=":3027597813_1" function="internal">
        <lane id=":3027597813_1_0" index="0" allow="pedestrian delivery bicycle" speed="5.56" length="10.18" shape="1320.19,3231.17 1317.43,3230.73 1315.48,3229.52 1314.33,3227.53 1313.98,3224.76"/>
    </edge>
    <edge id=":3027597813_2" function="internal">
        <lane id=":3027597813_2_0" index="0" allow="pedestrian delivery bicycle" speed="3.65" length="4.67" shape="1320.19,3231.17 1319.00,3230.35 1318.61,3229.54 1319.02,3228.75 1320.23,3227.97"/>
    </edge>
    <edge id=":3027597813_3" function="internal">
        <lane id=":3027597813_3_0" index="0" allow="pedestrian delivery bicycle" speed="5.04" length="5.00" shape="1317.18,3224.82 1317.35,3226.18 1317.92,3227.16 1318.88,3227.75 1320.23,3227.97"/>
    </edge>
    <edge id=":3027597813_4" function="internal">
        <lane id=":3027597813_4_0" index="0" allow="pedestrian delivery bicycle" speed="5.56" length="10.16" shape="1317.18,3224.82 1316.74,3227.57 1315.53,3229.52 1313.55,3230.68 1310.79,3231.04"/>
    </edge>
    <edge id=":3027597813_5" function="internal">
        <lane id=":3027597813_5_0" index="0" allow="pedestrian delivery bicycle" speed="3.65" length="4.67" shape="1317.18,3224.82 1316.36,3226.00 1315.56,3226.39 1314.76,3225.97 1313.98,3224.76"/>
    </edge>
    <edge id=":3027597813_6" function="internal">
        <lane id=":3027597813_6_0" index="0" allow="pedestrian delivery bicycle" speed="5.05" length="5.01" shape="1310.84,3227.84 1312.19,3227.66 1313.17,3227.09 1313.77,3226.12 1313.98,3224.76"/>
    </edge>
    <edge id=":3027597813_7" function="internal">
        <lane id=":3027597813_7_0" index="0" allow="pedestrian delivery bicycle" speed="5.56" length="9.40" shape="1310.84,3227.84 1320.23,3227.97"/>
    </edge>
    <edge id=":3027597813_8" function="internal">
        <lane id=":3027597813_8_0" index="0" allow="pedestrian delivery bicycle" speed="3.65" length="4.67" shape="1310.84,3227.84 1312.02,3228.65 1312.41,3229.46 1312.00,3230.25 1310.79,3231.04"/>
    </edge>
    <edge id=":3027597819_0" function="internal">
        <lane id=":3027597819_0_0" index="0" allow="pedestrian delivery bicycle" speed="5.07" length="5.04" shape="1259.03,3190.24 1257.65,3190.42 1256.66,3190.98 1256.04,3191.93 1255.81,3193.28"/>
    </edge>
    <edge id=":3027597819_1" function="internal">
        <lane id=":3027597819_1_0" index="0" allow="pedestrian delivery bicycle" speed="5.56" length="10.21" shape="1259.03,3190.24 1256.27,3189.80 1254.32,3188.58 1253.18,3186.58 1252.85,3183.80"/>
    </edge>
    <edge id=":3027597819_2" function="internal">
        <lane id=":3027597819_2_0" index="0" allow="pedestrian delivery bicycle" speed="3.65" length="4.67" shape="1259.03,3190.24 1257.85,3189.43 1257.46,3188.62 1257.87,3187.83 1259.09,3187.05"/>
    </edge>
    <edge id=":3027597819_3" function="internal">
        <lane id=":3027597819_3_0" index="0" allow="pedestrian delivery bicycle" speed="5.03" length="5.01" shape="1256.05,3183.88 1256.21,3185.25 1256.77,3186.23 1257.73,3186.83 1259.09,3187.05"/>
    </edge>
    <edge id=":3027597819_4" function="internal">
        <lane id=":3027597819_4_0" index="0" allow="pedestrian delivery bicycle" speed="5.56" length="9.40" shape="1256.05,3183.88 1255.81,3193.28"/>
    </edge>
    <edge id=":3027597819_5" function="internal">
        <lane id=":3027597819_5_0" index="0" allow="pedestrian delivery bicycle" speed="3.65" length="4.67" shape="1256.05,3183.88 1255.22,3185.06 1254.41,3185.44 1253.62,3185.02 1252.85,3183.80"/>
    </edge>
    <edge id=":3027597819_6" function="internal">
        <lane id=":3027597819_6_0" index="0" allow="pedestrian delivery bicycle" speed="5.56" length="9.40" shape="1252.61,3193.20 1252.85,3183.80"/>
    </edge>
    <edge id=":3027597819_7" function="internal">
        <lane id=":3027597819_7_0" index="0" allow="pedestrian delivery bicycle" speed="5.56" length="10.16" shape="1252.61,3193.20 1253.08,3190.47 1254.31,3188.53 1256.31,3187.39 1259.09,3187.05"/>
    </edge>
    <edge id=":3027597819_8" function="internal">
        <lane id=":3027597819_8_0" index="0" allow="pedestrian delivery bicycle" speed="3.65" length="4.67" shape="1252.61,3193.20 1253.44,3192.02 1254.25,3191.64 1255.04,3192.06 1255.81,3193.28"/>
    </edge>
    <edge id=":3027599438_0" function="internal">
        <lane id=":3027599438_0_0" index="0" allow="pedestrian delivery bicycle" speed="5.56" length="6.21" shape="1343.67,3119.81 1343.65,3126.02"/>
    </edge>
    <edge id=":3027599438_1" function="internal">
        <lane id=":3027599438_1_0" index="0" allow="pedestrian delivery bicycle" speed="3.65" length="4.67" shape="1343.67,3119.81 1342.86,3121.01 1342.06,3121.41 1341.26,3121.01 1340.47,3119.81"/>
    </edge>
    <edge id=":3027599438_2" function="internal">
        <lane id=":3027599438_2_0" index="0" allow="pedestrian delivery bicycle" speed="5.02" length="5.03" shape="1337.33,3122.87 1338.70,3122.70 1339.68,3122.14 1340.27,3121.17 1340.47,3119.81"/>
    </edge>
    <edge id=":3027599438_3" function="internal">
        <lane id=":3027599438_3_0" index="0" allow="pedestrian delivery bicycle" speed="5.56" length="7.76" shape="1337.33,3122.87 1340.10,3123.12 1342.07,3123.73 1343.26,3124.70 1343.65,3126.02"/>
    </edge>
    <edge id=":3027599438_4" function="internal">
        <lane id=":3027599438_4_0" index="0" allow="pedestrian delivery bicycle" speed="5.56" length="6.20" shape="1340.45,3126.01 1340.47,3119.81"/>
    </edge>
    <edge id=":3027599438_5" function="internal">
        <lane id=":3027599438_5_0" index="0" allow="pedestrian delivery bicycle" speed="3.65" length="4.67" shape="1340.45,3126.01 1341.25,3124.81 1342.06,3124.41 1342.85,3124.82 1343.65,3126.02"/>